cse-runner-app/src/test/resources/com/farao_community/farao/cse/runner/app/services/20210901_2230_test_network_pisa_test_both_links_connected_setpoint_and_emulation.uct
##C 2007.05.01
##N
##ZAT
OUSTR111 AT1          0 2 400.00 0.00000 0.00000 -200.00 0.00000 9000.00 -9000.0 9000.00 -9000.0
OUSTR211 AT2          0 2 400.00 0.00000 0.00000 -300.00 0.00000 9000.00 -9000.0 9000.00 -9000.0
OUSTR311 AT3          0 2 400.00 0.00000 0.00000 -200.00 0.00000 9000.00 -9000.0 9000.00 -9000.0
##ZCH
SWISSA11 CH1          0 2 400.00 0.00000 0.00000 0.00000 0.00000 9000.00 -9000.0 9000.00 -9000.0
SWISSB11 CH1          0 2 400.00 0.00000 0.00000 0.00000 0.00000 9000.00 -9000.0 9000.00 -9000.0
SWISS111 CH1          0 2 400.00 0.00000 0.00000 -1000.0 0.00000 600.000 -600.00 9000.00 -9000.0
SWISS211 CH2          0 2 400.00 0.00000 0.00000 987.000 0.00000 600.000 -600.00 9000.00 -9000.0
SWISS311 CH3          0 2 400.00 0.00000 0.00000 0.00000 0.00000 600.000 -600.00 9000.00 -9000.0
SWISS411 CH4          0 2 400.00 0.00000 0.00000 0.00000 0.00000 600.000 -600.00 9000.00 -9000.0
##ZFR
FRANC111 FR1          0 2 400.00 0.00000 0.00000 -1000.0 0.00000 9000.00 -9000.0 9000.00 -9000.0
FRANC211 FR2          0 2 400.00 0.00000 0.00000 -1000.0 0.00000 9000.00 -9000.0 9000.00 -9000.0
FRANC311 FR3          0 2 400.00 0.00000 0.00000 -500.00 0.00000 9000.00 -9000.0 9000.00 -9000.0
##ZIT
ITALY111 IT1          0 2 400.00 2000.00 0.00000 0.00000 0.00000 9000.00 -9000.0 9000.00 -9000.0
ITALY211 IT2          0 2 400.00 2000.00 0.00000 0.00000 0.00000 9000.00 -9000.0 9000.00 -9000.0
ITALY311 IT3          0 2 400.00 2000.00 0.00000 0.00000 0.00000 9000.00 -9000.0 9000.00 -9000.0
##ZSI
SLOVE111 SI1          0 2 400.00 0.00000 0.00000 -300.00 0.00000 9000.00 -9000.0 9000.00 -9000.0
SLOVE211 SI2          0 2 400.00 0.00000 0.00000 0.00000 0.00000 9000.00 -9000.0 9000.00 -9000.0
##ZXX
XFRANC11              0 0        0.00000 0.00000 0.00000 0.00000
XSLOVE11              0 0        0.00000 0.00000 0.00000 0.00000
XAUSTR11              0 0        0.00000 0.00000 0.00000 0.00000
XSWISS11              0 0        0.00000 0.00000 0.00000 0.00000
##L
OUSTR111 OUSTR211 1 0 0.0000 10.000 0.000000   5000
OUSTR111 OUSTR311 1 0 0.0000 10.000 0.000000   5000
FRANC111 FRANC211 1 0 0.0000 10.000 0.000000   5000
FRANC111 FRANC311 1 0 0.0000 10.000 0.000000   5000
FRANC211 FRANC311 1 0 0.0000 10.000 0.000000   5000
FRANC211 SWISSA11 1 0 0.0000 10.000 0.000000   5000
OUSTR111 SWISSB11 1 0 0.0000 10.000 0.000000   5000
SWISSA11 SWISS111 1 0 0.0000 10.000 0.000000   5000
SWISSA11 SWISS311 1 0 0.0000 10.000 0.000000   5000
SWISSB11 SWISS211 1 0 0.0000 10.000 0.000000   5000
SWISSB11 SWISS411 1 0 0.0000 10.000 0.000000   5000
SWISS111 SWISS211 1 8 0.0000 10.000 0.000000   5000
SWISS111 SWISS211 2 8 0.0000 10.000 0.000000   5000
SWISS111 SWISS211 3 8 0.0000 10.000 0.000000   5000
SWISS311 SWISS411 1 8 0.0000 10.000 0.000000   5000
SWISS311 SWISS411 2 0 0.0000 10.000 0.000000   5000
SWISS311 SWISS411 3 8 0.0000 10.000 0.000000   5000
ITALY111 ITALY211 1 0 0.0000 10.000 0.000000   5000
ITALY111 ITALY311 1 0 0.0000 10.000 0.000000   5000
ITALY211 ITALY311 1 0 0.0000 10.000 0.000000   5000
SLOVE211 SLOVE111 1 0 0.0000 10.000 0.000000   5000
FRANC211 SWISS311 1 0 0.0000 10.000 0.000000   5000
XSWISS11 ITALY311 1 0 0.0000 10.000 0.000000   5000
SWISS211 XSWISS11 1 0 0.0000 10.000 0.000000   5000
ITALY211 XAUSTR11 1 0 0.0000 10.000 0.000000   5000
XAUSTR11 OUSTR311 1 0 0.0000 10.000 0.000000   5000
SLOVE211 XSLOVE11 1 0 0.0000 10.000 0.000000   5000
XSLOVE11 ITALY111 1 0 0.0000 10.000 0.000000   5000
FRANC111 XFRANC11 1 0 0.0000 10.000 0.000000   5000
XFRANC11 ITALY111 1 0 0.0000 10.000 0.000000   5000
##T
OUSTR211 OUSTR311 1 0 400.0 400.0 1000. 0.0000 10.000 0.000000 0.0	     5000 PST
##R
OUSTR211 OUSTR311 1                    -0.68 90.00 16  0        SYMM
